data_04-024-4433
#Copyright 2023 International Centre for Diffraction Data. All rights reserved.

_audit_creation_date                  2023-11-20
_audit_creation_method                'Generated by PDF-4+ 2023 4.23.0.3'

_chemical_name_systematic             'Yttrium Molybdenum Oxide'
_chemical_formula_moiety              'Y2.5 Mo O6'
_chemical_formula_sum                 'Mo O6 Y2.5'
_chemical_formula_weight              414.22

_cell_length_a                        11.63785(12)
_cell_length_b                        5.72314(6)
_cell_length_c                        3.74085(4)
_cell_angle_alpha                     90
_cell_angle_beta                      90
_cell_angle_gamma                     90
_cell_formula_units_Z                 2
_cell_volume                          249.16
_symmetry_cell_setting                orthorhombic
_symmetry_space_group_name_H-M        Immm
_symmetry_Int_Tables_number           71

loop_
_symmetry_equiv_pos_site_id
_symmetry_equiv_pos_as_xyz
1 x,y,z
2 -x,-y,-z
3 x,-y,-z
4 -x,y,z
5 -x,y,-z
6 x,-y,z
7 -x,-y,z
8 x,y,-z
9 x+1/2,y+1/2,z+1/2
10 -x+1/2,-y+1/2,-z+1/2
11 x+1/2,-y+1/2,-z+1/2
12 -x+1/2,y+1/2,z+1/2
13 -x+1/2,y+1/2,-z+1/2
14 x+1/2,-y+1/2,z+1/2
15 -x+1/2,-y+1/2,z+1/2
16 x+1/2,y+1/2,-z+1/2

loop_
_atom_site_label
_atom_site_type_symbol
_atom_site_fract_x
_atom_site_fract_y
_atom_site_fract_z
_atom_site_B_iso_or_equiv
_atom_site_symmetry_multiplicity
_atom_site_Wyckoff_symbol
_atom_site_occupancy
Y1 Y 0.31122 0.0 0.5 1.63 4 f 1.0
Y2 Y 0.5 0.5 0.0 1.78 2 c 0.497
Mo3 Mo 0.5 0.27955 0.0 0.89 4 h 0.503
O4 O 0.15927 0.25 0.5 0.9 8 n 1.0
O5 O 0.5 0.0 0.622 0.9 4 j 0.465
O6 O 0.5 0.5 0.624 0.9 4 i 0.537

